%chk=122-39-4.chk
# opt dreiding geom=connectivity

c1(Nc2ccccc2)ccccc1

0 1
 C-C_R             -0.83270000   -0.48080000    0.00000000
 N-N_3             -2.49820000    0.48080000    0.00000000
 H-H_              -2.49820000    1.44230000    0.00000000
 C-C_R             -3.33090000    0.00000000    0.00000000
 C-C_R             -4.16360000    0.48080000    0.00000000
 H-H_              -4.16360000    1.44230000    0.00000000
 C-C_R             -4.99630000    0.00000000    0.00000000
 H-H_              -5.82900000    0.48080000    0.00000000
 C-C_R             -4.99630000   -0.96150000    0.00000000
 H-H_              -5.82900000   -1.44230000    0.00000000
 C-C_R             -4.16360000   -1.44230000    0.00000000
 H-H_              -4.16360000   -2.40380000    0.00000000
 C-C_R             -3.33090000   -0.96150000    0.00000000
 H-H_              -2.49820000   -1.44230000    0.00000000
 C-C_R             -0.83270000   -1.44230000    0.00000000
 H-H_              -1.66540000   -1.92310000    0.00000000
 C-C_R              0.00000000   -1.92310000    0.00000000
 H-H_               0.00000000   -2.88460000    0.00000000
 C-C_R              0.83270000   -1.44230000    0.00000000
 H-H_               1.66540000   -1.92310000    0.00000000
 C-C_R              0.83270000   -0.48080000    0.00000000
 H-H_               1.66540000    0.00000000    0.00000000
 C-C_R              0.00000000    0.00000000    0.00000000
 H-H_               0.00000000    0.96150000    0.00000000

 1 23 2.0 15 1.0 2 1.0
 2 3 1.0 4 1.0
 3
 4 13 2.0 5 1.0
 5 6 1.0 7 2.0
 6
 7 8 1.0 9 1.0
 8
 9 10 1.0 11 2.0
 10
 11 12 1.0 13 1.0
 12
 13 14 1.0
 14
 15 16 1.0 17 2.0
 16
 17 18 1.0 19 1.0
 18
 19 20 1.0 21 2.0
 20
 21 22 1.0 23 1.0
 22
 23 24 1.0
 24

